obj01
  PyMOL2.5          3D                             0

 24 27  0  0  0  0  0  0  0  0999 V2000
    1.9270    1.8540   32.2080 C   0  0  0  0  0  0  0  0  0  0  0  0
    2.6380    3.5100   30.9060 N   0  0  0  0  0  0  0  0  0  0  0  0
   -0.2030   -1.5290   30.3380 O   0  0  0  0  0  0  0  0  0  0  0  0
    1.7410    1.4630   30.8450 C   0  0  0  0  0  0  0  0  0  0  0  0
    0.9080   -1.0670   32.2680 N   0  0  0  0  0  0  0  0  0  0  0  0
    1.6290    1.0150   33.3970 C   0  0  0  0  0  0  0  0  0  0  0  0
    3.4140    6.1140   37.7950 N   0  0  0  0  0  0  0  0  0  0  0  0
    2.4670    3.1220   32.2050 C   0  0  0  0  0  0  0  0  0  0  0  0
    2.2160    2.5150   30.0550 C   0  0  0  0  0  0  0  0  0  0  0  0
    1.2230    0.3140   30.2080 C   0  0  0  0  0  0  0  0  0  0  0  0
    1.9190   -0.4530   33.1150 C   0  0  0  0  0  0  0  0  0  0  0  0
    2.8460    3.9870   33.2990 C   0  0  0  0  0  0  0  0  0  0  0  0
    0.6040   -0.8180   30.9420 C   0  0  0  0  0  0  0  0  0  0  0  0
    2.2190    2.4780   28.6580 C   0  0  0  0  0  0  0  0  0  0  0  0
    1.2220    0.2720   28.7980 C   0  0  0  0  0  0  0  0  0  0  0  0
    1.7160    1.3310   28.0420 C   0  0  0  0  0  0  0  0  0  0  0  0
    4.1550    3.9670   33.7770 C   0  0  0  0  0  0  0  0  0  0  0  0
    1.9030    4.8380   33.8730 C   0  0  0  0  0  0  0  0  0  0  0  0
    3.5780    5.6550   35.4090 C   0  0  0  0  0  0  0  0  0  0  0  0
    4.5210    4.8020   34.8340 C   0  0  0  0  0  0  0  0  0  0  0  0
    2.2700    5.6720   34.9280 C   0  0  0  0  0  0  0  0  0  0  0  0
    3.9700    6.5460   36.5380 C   0  0  0  0  0  0  0  0  0  0  0  0
    4.4600    5.8870   38.7930 C   0  0  0  0  0  0  0  0  0  0  0  0
    1.7010    1.2540   26.7050 F   0  0  0  0  0  0  0  0  0  0  0  0
  1  4  1  0  0  0  0
  1  6  1  0  0  0  0
  4  9  1  0  0  0  0
  4 10  1  0  0  0  0
  5 11  1  0  0  0  0
  7 23  1  0  0  0  0
  1  8  1  0  0  0  0
  2  8  1  0  0  0  0
  2  9  1  0  0  0  0
  9 14  1  0  0  0  0
 10 13  1  0  0  0  0
  6 11  1  0  0  0  0
  8 12  1  0  0  0  0
 12 17  1  0  0  0  0
 12 18  1  0  0  0  0
  3 13  2  0  0  0  0
  5 13  1  0  0  0  0
 14 16  1  0  0  0  0
 10 15  1  0  0  0  0
 15 16  1  0  0  0  0
 16 24  1  0  0  0  0
 17 20  1  0  0  0  0
 19 21  1  0  0  0  0
 19 22  1  0  0  0  0
 19 20  1  0  0  0  0
 18 21  1  0  0  0  0
  7 22  1  0  0  0  0
M  END
$$$$
