obj01
  PyMOL2.5          3D                             0

 29 33  0  0  0  0  0  0  0  0999 V2000
   -1.3150   -0.7620    0.0720 C   0  0  0  0  0  0  0  0  0  0  0  0
    0.6260    0.5680    0.0470 N   0  0  0  0  0  0  0  0  0  0  0  0
   -2.3250   -3.1960   -1.3240 O   0  0  0  0  0  0  0  0  0  0  0  0
   -0.6100    0.3230    0.5500 C   0  0  0  0  0  0  0  0  0  0  0  0
   -0.7990   -1.5660   -0.8730 N   0  0  0  0  0  0  0  0  0  0  0  0
    1.2160   -0.1820   -0.8970 C   0  0  0  0  0  0  0  0  0  0  0  0
    0.8220   -2.1700   -2.2840 N   0  0  0  0  0  0  0  0  0  0  0  0
    0.5000   -1.2620   -1.3650 C   0  0  0  0  0  0  0  0  0  0  0  0
   -1.1930   -2.6670   -1.5400 C   0  0  0  0  0  0  0  0  0  0  0  0
   -0.2000   -3.0520   -2.4170 C   0  0  0  0  0  0  0  0  0  0  0  0
   -0.2870   -4.2240   -3.3180 C   0  0  0  0  0  0  0  0  0  0  0  0
   -1.0660   -4.0000   -4.5330 C   0  0  0  0  0  0  0  0  0  0  0  0
   -0.4610   -4.1250   -5.7770 C   0  0  0  0  0  0  0  0  0  0  0  0
   -1.1660   -3.9190   -6.9560 C   0  0  0  0  0  0  0  0  0  0  0  0
   -2.5060   -3.5820   -6.9180 C   0  0  0  0  0  0  0  0  0  0  0  0
   -3.1260   -3.4520   -5.6970 C   0  0  0  0  0  0  0  0  0  0  0  0
   -2.4010   -3.6620   -4.5210 C   0  0  0  0  0  0  0  0  0  0  0  0
    2.5280    0.1320   -1.3870 C   0  0  0  0  0  0  0  0  0  0  0  0
    2.8240    0.3650   -2.6920 C   0  0  0  0  0  0  0  0  0  0  0  0
    4.1010    0.6640   -3.1400 C   0  0  0  0  0  0  0  0  0  0  0  0
    5.1240    0.7330   -2.2400 C   0  0  0  0  0  0  0  0  0  0  0  0
    4.8640    0.5010   -0.8930 C   0  0  0  0  0  0  0  0  0  0  0  0
    3.5820    0.2040   -0.4750 C   0  0  0  0  0  0  0  0  0  0  0  0
   -1.1840    1.1880    1.5790 C   0  0  0  0  0  0  0  0  0  0  0  0
   -1.5460    2.4940    1.3760 C   0  0  0  0  0  0  0  0  0  0  0  0
   -2.0870    3.2840    2.3700 C   0  0  0  0  0  0  0  0  0  0  0  0
   -2.2620    2.7180    3.6170 C   0  0  0  0  0  0  0  0  0  0  0  0
   -1.9060    1.4120    3.8450 C   0  0  0  0  0  0  0  0  0  0  0  0
   -1.3690    0.6490    2.8320 C   0  0  0  0  0  0  0  0  0  0  0  0
  1  4  1  0  0  0  0
  1  5  1  0  0  0  0
  2  4  1  0  0  0  0
  2  6  1  0  0  0  0
  3  9  2  0  0  0  0
  4 24  1  0  0  0  0
  5  8  1  0  0  0  0
  5  9  1  0  0  0  0
  6  8  1  0  0  0  0
  6 18  1  0  0  0  0
  7  8  1  0  0  0  0
  7 10  1  0  0  0  0
  9 10  1  0  0  0  0
 10 11  1  0  0  0  0
 11 12  1  0  0  0  0
 12 13  4  0  0  0  0
 12 17  4  0  0  0  0
 13 14  4  0  0  0  0
 14 15  4  0  0  0  0
 15 16  4  0  0  0  0
 16 17  4  0  0  0  0
 18 19  4  0  0  0  0
 18 23  4  0  0  0  0
 19 20  4  0  0  0  0
 20 21  4  0  0  0  0
 21 22  4  0  0  0  0
 22 23  4  0  0  0  0
 24 25  4  0  0  0  0
 24 29  4  0  0  0  0
 25 26  4  0  0  0  0
 26 27  4  0  0  0  0
 27 28  4  0  0  0  0
 28 29  4  0  0  0  0
M  END
$$$$
